Version 4
SHEET 1 2812 692
WIRE 1216 -288 1120 -288
WIRE 1664 -288 1648 -288
WIRE 2080 -288 2048 -288
WIRE -160 -208 -368 -208
WIRE 224 -208 -160 -208
WIRE 384 -208 224 -208
WIRE -160 -128 -160 -208
WIRE 1472 -112 1296 -112
WIRE 1696 -112 1536 -112
WIRE 1904 -112 1776 -112
WIRE 2048 -112 2048 -288
WIRE 2048 -112 1968 -112
WIRE 2096 -112 2048 -112
WIRE 384 -80 384 -208
WIRE 464 -80 384 -80
WIRE 224 -48 224 -208
WIRE 544 -32 544 -80
WIRE 640 -32 544 -32
WIRE 752 -32 704 -32
WIRE 928 -32 752 -32
WIRE 1024 -32 928 -32
WIRE 1072 -32 1024 -32
WIRE -976 -16 -976 -96
WIRE -160 -16 -160 -48
WIRE -32 -16 -160 -16
WIRE 544 -16 544 -32
WIRE 544 -16 480 -16
WIRE -160 0 -160 -16
WIRE -32 16 -32 -16
WIRE 64 16 -32 16
WIRE 416 16 384 16
WIRE 480 32 480 -16
WIRE 1072 32 1072 -32
WIRE 1120 32 1120 -288
WIRE 1120 32 1072 32
WIRE 1184 32 1120 32
WIRE 1248 32 1184 32
WIRE 1296 32 1296 -112
WIRE 1296 32 1248 32
WIRE 1344 32 1296 32
WIRE 1648 32 1648 -288
WIRE 1648 32 1600 32
WIRE 1696 32 1696 -112
WIRE 1696 32 1648 32
WIRE 1744 32 1696 32
WIRE 1776 32 1776 -112
WIRE 1776 32 1744 32
WIRE 1808 32 1776 32
WIRE 2096 32 2096 -112
WIRE 2096 32 2064 32
WIRE 2144 32 2096 32
WIRE 752 48 752 -32
WIRE 1648 80 1648 32
WIRE 1744 80 1744 32
WIRE -976 96 -976 64
WIRE 1248 96 1248 32
WIRE -160 112 -160 80
WIRE -160 112 -368 112
WIRE -64 112 -160 112
WIRE 64 112 0 112
WIRE 432 112 384 112
WIRE 2144 112 2144 32
WIRE 496 128 480 128
WIRE -80 144 -176 144
WIRE -176 160 -176 144
WIRE 928 176 928 -32
WIRE 1024 176 1024 -32
WIRE -80 208 -80 144
WIRE 64 208 -80 208
WIRE 496 208 496 128
WIRE 496 208 384 208
WIRE 752 208 752 128
WIRE 752 208 608 208
WIRE 752 224 752 208
WIRE 64 304 -16 304
WIRE 608 304 608 208
WIRE 608 304 384 304
WIRE -16 336 -16 304
WIRE 416 368 416 16
WIRE 496 384 496 208
WIRE -16 432 -16 416
WIRE -368 496 -368 112
WIRE -176 496 -176 240
WIRE -176 496 -368 496
WIRE -16 496 -176 496
WIRE 224 496 224 368
WIRE 224 496 -16 496
WIRE 416 496 416 432
WIRE 416 496 224 496
WIRE 496 496 496 464
WIRE 496 496 416 496
WIRE 752 496 752 304
WIRE 752 496 496 496
WIRE 928 496 928 240
WIRE 928 496 752 496
WIRE 1024 496 1024 240
WIRE 1024 496 928 496
WIRE 1248 496 1248 160
WIRE 1248 496 1024 496
WIRE 1472 496 1472 128
WIRE 1472 496 1248 496
WIRE 1648 496 1648 144
WIRE 1648 496 1472 496
WIRE 1744 496 1744 144
WIRE 1744 496 1648 496
WIRE 1936 496 1936 128
WIRE 1936 496 1744 496
WIRE 2144 496 2144 176
WIRE 2144 496 1936 496
WIRE 224 512 224 496
FLAG 224 512 0
FLAG 1648 32 12v
FLAG 1184 32 24V
FLAG 2144 32 5V
FLAG 1664 -288 +12V
IOPIN 1664 -288 Out
FLAG 1216 -288 +24V
IOPIN 1216 -288 Out
FLAG 2080 -288 +5V
IOPIN 2080 -288 Out
FLAG -976 96 0
FLAG -976 -96 +9V_battery
IOPIN -976 -96 Out
FLAG -368 -208 +9V_battery
IOPIN -368 -208 In
SYMBOL PowerProducts\\LT3757 224 160 R0
SYMATTR InstName U1
SYMBOL res -176 -144 R0
SYMATTR InstName R1
SYMATTR Value 200k
SYMBOL res -176 -16 R0
SYMATTR InstName R2
SYMATTR Value 43.2k
SYMBOL ind 448 -64 R270
WINDOW 0 32 56 VTop 2
WINDOW 3 5 56 VBottom 2
SYMATTR InstName L1
SYMATTR Value 10µH
SYMBOL res -32 320 R0
SYMATTR InstName R3
SYMATTR Value 22k
SYMBOL cap -32 432 R0
SYMATTR InstName C1
SYMATTR Value 6.8nF
SYMBOL res -192 144 R0
SYMATTR InstName R4
SYMATTR Value 41.2k
SYMBOL cap 0 96 R90
WINDOW 0 0 32 VBottom 2
WINDOW 3 32 32 VTop 2
SYMATTR InstName C2
SYMATTR Value 0.1µF
SYMBOL res 480 368 R0
SYMATTR InstName R5
SYMATTR Value 0.01
SYMBOL schottky 640 -16 R270
WINDOW 0 32 32 VTop 2
WINDOW 3 0 32 VBottom 2
SYMATTR InstName D1
SYMATTR Value RB511VM-30
SYMATTR Description Diode
SYMATTR Type diode
SYMBOL res 736 32 R0
SYMATTR InstName R6
SYMATTR Value 226k
SYMBOL res 736 208 R0
SYMATTR InstName R7
SYMATTR Value 16.2k
SYMBOL polcap 912 176 R0
WINDOW 3 24 56 Left 2
SYMATTR Value 47µ
SYMATTR InstName C3
SYMATTR Description Capacitor
SYMATTR Type cap
SYMATTR SpiceLine V=16 Irms=1.86052 Rser=0.065 Lser=0 mfg="KEMET" pn="T525D476M016ATE065" type="Tantalum"
SYMBOL polcap 1008 176 R0
WINDOW 3 24 56 Left 2
SYMATTR Value 18µ
SYMATTR InstName C4
SYMATTR Description Capacitor
SYMATTR Type cap
SYMATTR SpiceLine V=63 Irms=195m Rser=0.63 Lser=0 mfg="Nichicon" pn="UPL1J180MPH" type="Al electrolytic"
SYMBOL cap 400 368 R0
SYMATTR InstName C5
SYMATTR Value 4.7µF
SYMBOL nmos 432 32 R0
SYMATTR InstName M1
SYMATTR Value Si7336ADP
SYMBOL Regulators\\7812 1472 32 R0
SYMATTR InstName U3
SYMBOL cap 1232 96 R0
SYMATTR InstName 0.33uF
SYMATTR Value 0.33µF
SYMBOL cap 1632 80 R0
SYMATTR InstName C12
SYMATTR Value 0.1µF
SYMBOL Regulators\\7805 1936 32 R0
SYMATTR InstName U4
SYMBOL cap 1728 80 R0
SYMATTR InstName C6
SYMATTR Value 0.33µF
SYMBOL cap 2128 112 R0
SYMATTR InstName C7
SYMATTR Value 0.1µF
SYMBOL diode 1536 -128 R90
WINDOW 0 0 32 VBottom 2
WINDOW 3 32 32 VTop 2
SYMATTR InstName D2
SYMATTR Value 1N4148
SYMBOL diode 1968 -128 R90
WINDOW 0 0 32 VBottom 2
WINDOW 3 32 32 VTop 2
SYMATTR InstName D3
SYMATTR Value 1N4148
SYMBOL voltage -976 -32 R0
WINDOW 123 0 0 Left 0
WINDOW 39 0 0 Left 0
SYMATTR InstName V1
SYMATTR Value 9V
TEXT -400 536 Left 2 !.tran 20ms uic
TEXT -416 584 Left 2 !.include "regulators.lib"
